  
       XFOIL         Version 6.99
  
 Calculated polar for: NACA 2412                                       
  
 1 1 Reynolds number fixed          Mach number fixed         
  
 xtrf =   1.000 (top)        1.000 (bottom)  
 Mach =   0.000     Re =     6.374 e 6     Ncrit =   9.000
  
   alpha    CL        CD       CDp       CM     Top_Xtr  Bot_Xtr
  ------ -------- --------- --------- -------- -------- --------
 -10.000  -0.8819   0.00885   0.00464  -0.0526   0.9532   0.0134
  -9.500  -0.8288   0.00842   0.00417  -0.0521   0.9365   0.0150
  -9.000  -0.7744   0.00807   0.00378  -0.0518   0.9201   0.0160
  -8.500  -0.7192   0.00776   0.00343  -0.0517   0.9044   0.0170
  -8.000  -0.6640   0.00743   0.00307  -0.0515   0.8876   0.0191
  -7.500  -0.6081   0.00717   0.00277  -0.0515   0.8683   0.0208
  -7.000  -0.5522   0.00692   0.00248  -0.0514   0.8468   0.0232
  -6.500  -0.4960   0.00668   0.00221  -0.0514   0.8240   0.0263
  -6.000  -0.4396   0.00649   0.00198  -0.0514   0.7985   0.0300
  -5.500  -0.3829   0.00632   0.00176  -0.0515   0.7722   0.0342
  -5.000  -0.3263   0.00616   0.00156  -0.0515   0.7426   0.0405
  -4.500  -0.2696   0.00602   0.00139  -0.0516   0.7123   0.0480
  -4.000  -0.2128   0.00589   0.00123  -0.0517   0.6808   0.0584
  -3.500  -0.1558   0.00579   0.00110  -0.0518   0.6495   0.0701
  -3.000  -0.0989   0.00568   0.00098  -0.0519   0.6185   0.0887
  -2.500  -0.0418   0.00560   0.00088  -0.0521   0.5884   0.1069
  -2.000   0.0152   0.00551   0.00081  -0.0522   0.5579   0.1342
  -1.500   0.0722   0.00544   0.00075  -0.0524   0.5292   0.1651
  -1.000   0.1293   0.00539   0.00072  -0.0526   0.5015   0.1979
  -0.500   0.1865   0.00532   0.00070  -0.0528   0.4781   0.2397
   0.000   0.2437   0.00528   0.00070  -0.0530   0.4542   0.2816
   0.500   0.3008   0.00523   0.00072  -0.0532   0.4323   0.3302
   1.000   0.3578   0.00517   0.00075  -0.0534   0.4117   0.3893
   1.500   0.4141   0.00511   0.00080  -0.0535   0.3840   0.4722
   2.000   0.4702   0.00513   0.00089  -0.0536   0.3524   0.5485
   2.500   0.5259   0.00520   0.00101  -0.0536   0.3173   0.6190
   3.000   0.5809   0.00534   0.00117  -0.0534   0.2761   0.6898
   3.500   0.6357   0.00549   0.00135  -0.0533   0.2380   0.7616
   4.000   0.6895   0.00571   0.00157  -0.0529   0.1966   0.8338
   4.500   0.7421   0.00599   0.00184  -0.0522   0.1562   0.9017
   5.000   0.7932   0.00628   0.00212  -0.0512   0.1233   0.9528
   5.500   0.8444   0.00665   0.00240  -0.0502   0.0963   0.9844
   6.000   0.9066   0.00711   0.00272  -0.0517   0.0726   0.9969
   6.500   0.9686   0.00756   0.00306  -0.0534   0.0554   1.0000
   7.000   1.0184   0.00796   0.00338  -0.0522   0.0448   1.0000
   7.500   1.0698   0.00838   0.00373  -0.0514   0.0368   1.0000
   8.000   1.1216   0.00881   0.00410  -0.0508   0.0303   1.0000
   8.500   1.1736   0.00923   0.00448  -0.0502   0.0263   1.0000
   9.000   1.2252   0.00967   0.00488  -0.0496   0.0229   1.0000
   9.500   1.2762   0.01014   0.00532  -0.0489   0.0200   1.0000
  10.000   1.3263   0.01066   0.00581  -0.0481   0.0173   1.0000
  10.500   1.3764   0.01114   0.00628  -0.0473   0.0162   1.0000
  11.000   1.4245   0.01173   0.00685  -0.0463   0.0141   1.0000
  11.500   1.4728   0.01226   0.00739  -0.0453   0.0134   1.0000
  12.000   1.5187   0.01293   0.00804  -0.0439   0.0120   1.0000
  12.500   1.5640   0.01356   0.00868  -0.0425   0.0113   1.0000
  13.000   1.6077   0.01422   0.00936  -0.0409   0.0107   1.0000
  13.500   1.6478   0.01503   0.01016  -0.0387   0.0098   1.0000
  14.000   1.6822   0.01587   0.01103  -0.0355   0.0091   1.0000
  14.500   1.7146   0.01670   0.01190  -0.0321   0.0089   1.0000
  15.000   1.7448   0.01771   0.01295  -0.0287   0.0085   1.0000
